data_test

_audit_creation_method generated by ABACUS

_cell_length_a 3.40038
_cell_length_b 3.40038
_cell_length_c 3.40038
_cell_angle_alpha 60
_cell_angle_beta 60
_cell_angle_gamma 60

_symmetry_space_group_name_H-M 
_symmetry_Int_Tables_number 

loop_
_atom_site_label
_atom_site_fract_x
_atom_site_fract_y
_atom_site_fract_z
Zr 0 0 0
H 0.75 0.75 0.75
H 0.25 0.25 0.25
