data_test

_audit_creation_method generated by ABACUS

_cell_length_a 5.4582
_cell_length_b 5.4582
_cell_length_c 5.4582
_cell_angle_alpha 139.435
_cell_angle_beta 139.435
_cell_angle_gamma 58.7128

_symmetry_space_group_name_H-M 
_symmetry_Int_Tables_number 

loop_
_atom_site_label
_atom_site_fract_x
_atom_site_fract_y
_atom_site_fract_z
Ti 0.75 0.25 0.5
Ti 0 0 0
O 0.9581 0.4581 0.5
O 0.7919 0.7919 0
O 0.5419 0.0419 0.5
O 0.2081 0.2081 0
